#	Name:			3dxg_ligand
#	Creating user name:	suminyi
#	Creation time:		Sun Sep 30 06:49:06 2018

#	Modifying user name:	suminyi
#	Modification time:	Sun Sep 30 06:49:06 2018

@<TRIPOS>MOLECULE
3dxg_ligand
   32    33     1     1     0
SMALL
MMFF94_CHARGES


@<TRIPOS>ATOM
      1 N1         36.4310   -2.0220   12.0930 N.am      1 U5P        -0.4691 
      2 C2         35.2270   -2.2090   11.4130 C.2       1 U5P         0.6900 
      3 N3         34.5610   -3.3480   11.5830 N.am      1 U5P        -0.4900 
      4 C4         35.0030   -4.3250   12.4040 C.2       1 U5P         0.6156 
      5 C5         36.2070   -4.1680   13.0920 C.2       1 U5P        -0.1356 
      6 C6         36.9110   -2.9820   12.9070 C.2       1 U5P        -0.0410 
      7 O2         34.7830   -1.3140   10.6750 O.2       1 U5P        -0.5700 
      8 O4         34.3250   -5.3690   12.5290 O.2       1 U5P        -0.5700 
      9 C1'        37.1410   -0.7760   11.8600 C.3       1 U5P         0.5801 
     10 C2'        36.7510    0.2970   12.8470 C.3       1 U5P         0.2800 
     11 O2'        36.6010    1.4830   12.0570 O.3       1 U5P        -0.6800 
     12 C3'        37.9640    0.3940   13.7420 C.3       1 U5P         0.2800 
     13 C4'        39.1090    0.0400   12.8080 C.3       1 U5P         0.2800 
     14 O3'        38.1200    1.6790   14.3480 O.3       1 U5P        -0.6800 
     15 O4'        38.5510   -0.9850   11.9760 O.3       1 U5P        -0.5600 
     16 C5'        40.3430   -0.4530   13.5540 C.3       1 U5P         0.2800 
     17 O5'        40.0240   -1.7430   14.0570 O.3       1 U5P        -0.5512 
     18 P          41.0170   -2.5700   15.0150 P.3       1 U5P         1.3712 
     19 O1P        41.4160   -1.5950   16.1050 O.co2     1 U5P        -1.0333 
     20 O2P        42.1530   -2.9990   14.1100 O.co2     1 U5P        -1.0333 
     21 O3P        40.1370   -3.7160   15.4570 O.co2     1 U5P        -1.0333 
     22 H1         33.7041   -3.4854   11.0861 H         1 U5P         0.3700 
     23 H2         36.5833   -4.9481   13.7521 H         1 U5P         0.1500 
     24 H3         37.8571   -2.8288   13.4241 H         1 U5P         0.1500 
     25 H4         36.9071   -0.4269   10.8434 H         1 U5P         0.0000 
     26 H5         35.8363    0.0624   13.4111 H         1 U5P         0.0000 
     27 H6         36.3532    2.2075   12.6193 H         1 U5P         0.4000 
     28 H7         37.8932   -0.3524   14.5469 H         1 U5P         0.0000 
     29 H8         39.3907    0.9146   12.2033 H         1 U5P         0.0000 
     30 H9         38.1592    2.3444   13.6712 H         1 U5P         0.4000 
     31 H10        40.5832    0.2290   14.3830 H         1 U5P         0.0000 
     32 H11        41.2015   -0.5143   12.8690 H         1 U5P         0.0000 
@<TRIPOS>BOND
     1    1    2 am   
     2    1    6 1    
     3    1    9 1    
     4    2    3 am   
     5    2    7 2    
     6    3    4 am   
     7    4    5 1    
     8    4    8 2    
     9    5    6 2    
    10    9   10 1    
    11    9   15 1    
    12   10   11 1    
    13   10   12 1    
    14   12   13 1    
    15   12   14 1    
    16   13   15 1    
    17   13   16 1    
    18   16   17 1    
    19   17   18 1    
    20   18   19 ar   
    21   18   20 ar   
    22   18   21 ar   
    23    3   22 1    
    24    5   23 1    
    25    6   24 1    
    26    9   25 1    
    27   10   26 1    
    28   11   27 1    
    29   12   28 1    
    30   13   29 1    
    31   14   30 1    
    32   16   31 1    
    33   16   32 1    
@<TRIPOS>SUBSTRUCTURE
     1 U5P         1 PERM              0 ****  ****    0 ROOT 
@<TRIPOS>NORMAL
@<TRIPOS>ALT_TYPE
MMFF94_ALT_TYPE_SET 
MMFF94 9 CR 10 CR 12 CR 13 CR 16 CR 2 CONN 4 C=ON 5 C=C 6 C=C 23 HC \
24 HC 25 HC 26 HC 28 HC 29 HC 31 HC 32 HC 22 HNCO 27 HOR \
30 HOR 7 O=CN 8 O=CN 19 O3P 20 O3P 21 O3P 17 OPO3 11 OR \
14 OR 15 OR 1 NC=O 3 NC=O 18 PO4 
